{
   "completed_at" : "20260305T121021Z",
   "completed_status" : "Success",
   "current_step" : 0,
   "eplusout_err" : "Program Version,EnergyPlus, Version 25.2.0-cf7368216c, YMD=2026.03.05 04:10,\n   ************* Beginning Zone Sizing Calculations\n   ** Warning ** Weather file location will be used rather than entered (IDF) Location object.\n   **   ~~~   ** ..Location object=SPB_PULKOVO\n   **   ~~~   ** ..Weather File Location=St.Petersburg-Pulkovo.AP SPE RUS SRC-TMYx WMO#=260630\n   **   ~~~   ** ..due to location differences, Latitude difference=[0.00] degrees, Longitude difference=[3.00E-003] degrees.\n   **   ~~~   ** ..Time Zone difference=[0.0] hour(s), Elevation difference=[50.63] percent, [8.10] meters.\n   ** Warning ** GetHTSurfaceData: Surfaces with interface to Ground found but no \"Ground Temperatures\" were input.\n   **   ~~~   ** Found first in surface=\u041f\u043e\u043b\n   **   ~~~   ** Defaults, constant throughout the year of (18.0) will be used.\n   ************* Beginning System Sizing Calculations\n   ** Warning ** Since Zone Minimum Air Flow Input Method = CONSTANT, input for Fixed Minimum Air Flow Rate will be ignored.\n   **   ~~~   ** Occurs in AirTerminal:SingleDuct:VAV:NoReheat = \u0422\u0435\u0440\u043c\u0438\u043d\u0430\u043b_VAV_DCV\n   ************* Beginning Plant Sizing Calculations\n   ** Warning ** GetOAControllerInputs: Controller:MechanicalVentilation=\"CONTROLLER MECHANICAL VENTILATION 1\"\n   **   ~~~   ** Cannot locate a matching DesignSpecification:ZoneAirDistribution object for Zone=\"\u041a\u0438\u043d\u043e\u0437\u0430\u043b_135\u043c\u0435\u0441\u0442_DCV\".\n   **   ~~~   ** Using default zone air distribution effectiveness of 1.0 for heating and cooling.\n   ** Warning ** Output:Meter: invalid Key Name=\"NATURALGAS:FACILITY\" - not found.\n   ** Warning ** Output:Meter: invalid Key Name=\"DISTRICTCOOLING:FACILITY\" - not found.\n   ** Warning ** Output:Meter:MeterFileOnly: invalid Key Name=\"HEATING:DISTRICTHEATING\" - not found.\n   ** Warning ** Output:Meter:MeterFileOnly: invalid Key Name=\"DISTRICTHEATING:FACILITY\" - not found.\n   ** Warning ** Output:Meter:MeterFileOnly: invalid Key Name=\"NATURALGAS:FACILITY\" - not found.\n   ** Warning ** Output:Meter:MeterFileOnly requested for \"Electricity:Facility\" (TimeStep), already on \"Output:Meter\". Will report to both eplusout.eso and eplusout.mtr\n   ************* Testing Individual Branch Integrity\n   ************* All Branches passed integrity testing\n   ************* Testing Individual Supply Air Path Integrity\n   ************* All Supply Air Paths passed integrity testing\n   ************* Testing Individual Return Air Path Integrity\n   ************* All Return Air Paths passed integrity testing\n   ************* No node connection errors were found.\n   ************* Beginning Simulation\n   ** Warning ** Processing Monthly Tabular Reports: Variable names not valid for this simulation\n   **   ~~~   ** ...use Output:Diagnostics,DisplayExtraWarnings; to show more details on individual variables.\n   ** Warning ** Temperature out of range [-100. to 200.] (PsyPsatFnTemp)\n   **   ~~~   **  Routine=PsyTwbFnTdbWPb, Environment=RUN PERIOD 1, at Simulation time=04/07 13:30 - 13:40\n   **   ~~~   **  Input Temperature=-117.51\n   ** Warning ** The resource referenced by LifeCycleCost:UsePriceEscalation= \"U.S. AVG  COMMERCIAL-ELECTRICITY\" has no energy cost. \n   **   ~~~   ** ... It is likely that the wrong resource is used. The resource should match the meter used in Utility:Tariff.\n   ** Warning ** The resource referenced by LifeCycleCost:UsePriceEscalation= \"U.S. AVG  COMMERCIAL-DISTILLATE OIL\" has no energy cost. \n   **   ~~~   ** ... It is likely that the wrong resource is used. The resource should match the meter used in Utility:Tariff.\n   ** Warning ** The resource referenced by LifeCycleCost:UsePriceEscalation= \"U.S. AVG  COMMERCIAL-RESIDUAL OIL\" has no energy cost. \n   **   ~~~   ** ... It is likely that the wrong resource is used. The resource should match the meter used in Utility:Tariff.\n   ** Warning ** The resource referenced by LifeCycleCost:UsePriceEscalation= \"U.S. AVG  COMMERCIAL-NATURAL GAS\" has no energy cost. \n   **   ~~~   ** ... It is likely that the wrong resource is used. The resource should match the meter used in Utility:Tariff.\n   ** Warning ** The resource referenced by LifeCycleCost:UsePriceEscalation= \"U.S. AVG  COMMERCIAL-COAL\" has no energy cost. \n   **   ~~~   ** ... It is likely that the wrong resource is used. The resource should match the meter used in Utility:Tariff.\n   ************* Simulation Error Summary *************\n   ** Warning ** The following Report Variables were requested but not generated -- check.rdd file\n   **   ~~~   ** Either the IDF did not contain these elements, the variable name is misspelled,\n   **   ~~~   ** or the requested variable is an advanced output which requires Output : Diagnostics, DisplayAdvancedReportVariables;\n   ************* Key=*, VarName=ZONE LIGHTS ELECTRIC ENERGY, Frequency=Monthly\n   ************* Key=*, VarName=AIR SYSTEM FAN ELECTRIC ENERGY, Frequency=Monthly\n   ************* Key=*, VarName=FAN ELECTRIC ENERGY, Frequency=Monthly\n   ************* Key=*, VarName=DISTRICT HEATING ENERGY, Frequency=Monthly\n   ************* Key=*, VarName=ZONE ELECTRIC EQUIPMENT ELECTRIC ENERGY, Frequency=Monthly\n   ************* There are 1 unused schedules in input.\n   ************* Use Output:Diagnostics,DisplayUnusedSchedules; to see them.\n   *************\n   ************* ===== Recurring Error Summary =====\n   ************* The following recurring error messages occurred.\n   *************\n   *************  ** Warning ** Temperature out of range [-100. to 200.] (PsyPsatFnTemp)\n   *************  **   ~~~   **   This error occurred 1 total times;\n   *************  **   ~~~   **   during Warmup 0 times;\n   *************  **   ~~~   **   during Sizing 0 times.\n   *************  **   ~~~   **   Max=-117.516430 C  Min=-117.516430 C\n   *************\n   ************* EnergyPlus Warmup Error Summary. During Warmup: 0 Warning; 0 Severe Errors.\n   ************* EnergyPlus Sizing Error Summary. During Sizing: 3 Warning; 0 Severe Errors.\n   ************* EnergyPlus Completed Successfully-- 17 Warning; 0 Severe Errors; Elapsed Time=00hr 00min  1.61sec\n",
   "file_paths" : 
   [
      "/Users/m/Documents/Openstudio/sim_DCV/generated_files",
      "./files",
      "./weather",
      "../../files",
      "../../weather",
      "./"
   ],
   "hash" : "ABE0ED3E",
   "measure_paths" : [],
   "run_options" : null,
   "seed_file" : "/Users/m/Documents/Openstudio/models/kinozal_DCV.osm",
   "started_at" : "20260305T121019Z",
   "steps" : [],
   "updated_at" : "20260305T121021Z",
   "weather_file" : "/Users/m/Documents/Openstudio/weather/Saint-Petersburg.epw"
}